17

H   -0.164611   2.769073    0.005096
C   -0.083841   1.695475    0.002480
N   -1.221546   1.030337    0.006697
C   1.163815   1.096298    -0.006864
C   -1.168201   -0.295245    0.000897
H   2.053014   1.700465    -0.012358
C   1.235563   -0.287970    -0.010437
C   0.034523   -0.986001    -0.008213
C   -2.492741   -1.014142    0.002221
C   2.558972   -1.012098    0.008280
H   0.032998   -2.061470    -0.014840
H   -3.064267   -0.743597    -0.879008
H   -2.367101   -2.090380    0.016649
H   -3.074808   -0.720550    0.868841
H   2.514211   -1.927131    -0.571314
H   3.352656   -0.393024    -0.393202
H   2.829718   -1.279884    1.025626
