18

C	 -0.000000	 -0.000000	 -0.191639
C	 0.958853	 -0.754201	 0.510391
C	 0.956743	 -0.746533	 1.901670
C	 -0.000000	 0.000000	 2.596333
C	 -0.956743	 0.746533	 1.901670
C	 -0.958853	 0.754202	 0.510391
C	 -0.000000	 -0.000000	 -1.658508
H	 1.730111	 -1.301151	 -0.024627
H	 1.706212	 -1.313620	 2.444112
H	 -0.000000	 0.000000	 3.681982
H	 -1.706212	 1.313619	 2.444112
H	 -1.730111	 1.301151	 -0.024627
N	 -0.712589	 -0.905950	 -2.322235
N	 0.712590	 0.905950	 -2.322235
H	 0.673432	 1.006470	 -3.329771
H	 1.377190	 1.485970	 -1.827091
H	 -1.377189	 -1.485970	 -1.827091
H	 -0.673431	 -1.006470	 -3.329771
