18

C	 1.240204	 0.525054	 -2.239814
C	 2.337920	 0.814629	 -1.407810
C	 3.513168	 1.308018	 -1.965557
C	 3.597371	 1.522987	 -3.344659
C	 2.506931	 1.240657	 -4.173186
C	 1.329589	 0.738051	 -3.628233
C	 -0.000000	 -0.000000	 -1.658508
H	 2.291718	 0.608976	 -0.342066
H	 4.366092	 1.515229	 -1.327500
H	 4.515262	 1.911586	 -3.774891
H	 2.571251	 1.421773	 -5.241172
H	 0.471100	 0.560694	 -4.269932
N	 -0.712589	 -0.905950	 -2.322235
N	 -0.409743	 0.430799	 -0.468724
H	 -1.206296	 0.033930	 0.015801
H	 0.037986	 1.230517	 -0.040619
H	 -1.377189	 -1.485970	 -1.827091
H	 -0.673431	 -1.006470	 -3.329771
