14

H   -1.475149   -2.166158    -0.000122
C   -1.029529   -1.186367    -0.000074
N   0.289097   -1.151471    -0.000037
C   -1.829623   -0.056373    -0.000056
C   0.894836   0.027891    0.000024
H   -2.900107   -0.143982    -0.000097
C   -1.200796   1.174981    -0.000012
C   0.182040   1.220519    0.000016
C   2.401839   0.004171    0.000115
H   -1.774648   2.084739    -0.000016
H   0.701225   2.161070    0.000035
H   2.766487   -0.524672    -0.873595
H   2.819644   1.003995    -0.000424
H   2.766377   -0.523526    0.874588
