10

H   -3.168388   1.740654    0.454390
O   -2.415891   2.194100    0.809336
C   -1.325453   2.005517    -0.044680
C   -0.795902   0.595680    -0.067389
H   -0.550419   2.680075    0.301004
H   -1.572568   2.310586    -1.060993
C   -1.522220   -0.487727    -0.255690
H   0.267906   0.506522    0.090233
H   -1.071454   -1.449856    -0.418625
H   -2.596511   -0.445958    -0.267127
