18

C	 -0.000000	 -0.000000	 -0.191639
C	 0.249733	 -1.194090	 0.510391
C	 0.253046	 -1.186860	 1.901670
C	 -0.000000	 0.000000	 2.596333
C	 -0.253046	 1.186860	 1.901670
C	 -0.249732	 1.194090	 0.510391
C	 -0.000000	 -0.000000	 -1.658508
H	 0.488979	 -2.108833	 -0.024627
H	 0.462655	 -2.103023	 2.444112
H	 -0.000000	 0.000000	 3.681982
H	 -0.462657	 2.103023	 2.444112
H	 -0.488979	 2.108833	 -0.024627
N	 -0.712589	 -0.905950	 -2.322235
N	 0.712590	 0.905950	 -2.322235
H	 0.673432	 1.006470	 -3.329771
H	 1.377190	 1.485970	 -1.827091
H	 -1.377189	 -1.485970	 -1.827091
H	 -0.673431	 -1.006470	 -3.329771
