15

H   2.332609   0.878551    -1.051851
C   2.357710   0.000000    -0.417167
C   1.175432   0.000000    0.532082
H   3.291263   0.000000    0.136880
H   2.332609   -0.878551    -1.051851
O   0.000000   0.000000    -0.221444
H   1.206604   0.877321    1.177902
H   1.206604   -0.877321    1.177902
C   -1.175432   0.000000    0.532082
C   -1.304273   -1.341863    1.226099
H   -2.034859   0.177706    -0.114101
H   -1.150717   0.806133    1.265080
H   -1.340149   -2.142742    0.496297
H   -2.210416   -1.376777    1.822902
H   -0.454767   -1.513434    1.877412
