18

C	 0.351094	 -0.231094	 -0.253150
C	 0.378701	 0.847959	 0.650147
C	 0.707886	 0.621799	 1.982892
C	 1.018393	 -0.670318	 2.417914
C	 0.996366	 -1.743558	 1.521869
C	 0.659547	 -1.531347	 0.188737
C	 -0.000000	 -0.000000	 -1.658508
H	 0.096708	 1.845863	 0.326255
H	 0.712568	 1.449953	 2.684086
H	 1.278243	 -0.841354	 3.458039
H	 1.251352	 -2.742626	 1.860066
H	 0.685428	 -2.360674	 -0.512536
N	 -0.712589	 -0.905950	 -2.322235
N	 0.394865	 1.115081	 -2.266571
H	 0.101634	 1.364085	 -3.204003
H	 1.067972	 1.722547	 -1.818024
H	 -1.377189	 -1.485970	 -1.827091
H	 -0.673431	 -1.006470	 -3.329771
