16

H   -3.042581   -0.665861    0.004336
O   -2.245037   -1.176175    0.000806
C   -1.162163   -0.365336    0.001020
C   -1.256181   1.000008    -0.199797
C   0.075784   -0.960544    0.210890
H   -2.214724   1.462371    -0.365286
C   -0.097938   1.764370    -0.188254
H   0.112273   -2.024126    0.361153
C   1.230065   -0.197269    0.223523
H   -0.167135   2.826079    -0.346450
C   1.134786   1.179439    0.019641
C   2.574197   -0.839860    0.475486
H   2.023868   1.785120    0.023277
H   3.327444   -0.448784    -0.200139
H   2.529839   -1.914422    0.344298
H   2.910979   -0.643105    1.489494
