15

H   -2.698709   -0.000305    0.034435
C   -1.693833   0.000034    0.434417
O   -0.828952   -0.000968    -0.659236
H   -1.574200   0.882896    1.055746
H   -1.574147   -0.881698    1.057355
C   0.544714   0.213995    -0.432663
C   0.862907   1.671747    -0.106123
C   1.126357   -0.752014    0.597618
H   0.991611   -0.016132    -1.392536
H   0.392919   2.330312    -0.828586
H   1.935382   1.834879    -0.143820
H   0.524923   1.953917    0.886002
H   0.838126   -1.770929    0.362689
H   2.210370   -0.694418    0.589764
H   0.795246   -0.525687    1.606073
