15

H   -3.161837   0.500524    -0.000234
C   -2.367097   -0.232926    -0.000000
O   -1.158440   0.455814    -0.000122
H   -2.468853   -0.861886    -0.882833
H   -2.468942   -0.861421    0.883154
C   -1.058687   1.440634    0.983775
C   -2.012756   2.572200    0.643226
H   -0.034805   1.812649    1.040100
H   -1.302233   1.021153    1.960826
C   -1.523346   3.415052    -0.533617
H   -2.986186   2.146346    0.420197
H   -2.137363   3.194378    1.524173
H   -1.415211   2.815193    -1.433005
H   -2.222420   4.214674    -0.754400
H   -0.559887   3.870183    -0.321468
