14

H   3.295965   -0.452436    0.003647
C   2.236903   -0.265869    0.002863
C   1.763546   1.023595    -0.207077
C   1.353496   -1.311926    0.211034
H   2.455572   1.830286    -0.367935
C   0.404074   1.266694    -0.208711
H   1.723360   -2.308011    0.373083
C   -0.010120   -1.066742    0.209162
H   0.017979   2.255819    -0.369066
C   -0.488460   0.219100    0.000000
H   -0.701825   -1.875747    0.370412
C   -1.949954   0.470334    0.000000
O   -2.781584   -0.381627    0.000000
H   -2.238022   1.526388    0.000000
