15

H   -0.944757   -0.000069    1.678017
O   -0.042387   -0.000390    1.388199
C   -0.001487   0.000018    -0.026623
C   1.432614   0.249857    -0.497340
C   -0.522548   -1.338125    -0.554365
C   -0.917081   1.142591    -0.451638
H   1.491418   0.297874    -1.579992
H   2.092612   -0.548543    -0.165882
H   1.804045   1.183549    -0.089570
H   -0.541417   -1.355641    -1.639458
H   0.110757   -2.157441    -0.221833
H   -1.526985   -1.520265    -0.188566
H   -0.954998   1.228957    -1.532770
H   -0.560246   2.080781    -0.041814
H   -1.922418   0.974049    -0.082473
