10

H   1.335579   -0.874657    -1.332947
C   1.288168   0.000126    -0.690826
C   0.000000   0.000000    0.104431
H   2.133895   0.000719    -0.017536
H   1.334986   0.874250    -1.333921
C   -1.288168   -0.000126    -0.690826
O   0.000000   0.000000    1.296504
H   -1.334986   -0.874250    -1.333922
H   -2.133895   -0.000719    -0.017536
H   -1.335579   0.874657    -1.332947
