17

H   1.087214   -2.104178    0.000000
C   0.613551   -1.136601    0.000000
N   -0.706466   -1.147177    0.000000
C   1.392665   0.010757    0.000000
C   -1.355092   0.005668    0.000000
C   0.704068   1.215824    0.000000
C   2.900724   -0.050769    0.000000
C   -0.677008   1.218996    0.000000
C   -2.860450   -0.067552    0.000000
H   1.243945   2.147724    0.000000
H   3.315744   0.438867    -0.875840
H   3.249402   -1.077084    0.000000
H   3.315744   0.438867    0.875840
H   -1.222239   2.144996    0.000000
H   -3.209252   -0.606485    -0.874192
H   -3.309976   0.918598    0.000000
H   -3.209252   -0.606485    0.874192
