18

C	 -0.265787	 1.428913	 -1.856672
C	 0.799610	 2.348669	 -1.850131
C	 0.541769	 3.702158	 -2.043278
C	 -0.770950	 4.144746	 -2.233306
C	 -1.831932	 3.233956	 -2.235647
C	 -1.585591	 1.876887	 -2.052891
C	 -0.000000	 -0.000000	 -1.658508
H	 1.824770	 2.004608	 -1.745703
H	 1.363991	 4.410202	 -2.055866
H	 -0.967663	 5.202303	 -2.379969
H	 -2.850729	 3.582725	 -2.369617
H	 -2.416868	 1.178599	 -2.012765
N	 -0.712589	 -0.905950	 -2.322235
N	 0.953115	 -0.387156	 -0.815451
H	 1.237262	 -1.354354	 -0.712717
H	 1.380441	 0.286834	 -0.193828
H	 -1.377189	 -1.485970	 -1.827091
H	 -0.673431	 -1.006470	 -3.329771
