11

H   -1.356767   -0.000226    1.244497
C   -1.134294   -0.000132    0.177550
H   -2.049005   -0.000258    -0.393868
O   -0.375103   1.110325    -0.160733
O   -0.374802   -1.110390    -0.160815
C   0.968486   0.771892    0.065594
C   0.968624   -0.771667    0.065505
H   1.306918   1.173784    1.015311
H   1.567109   1.199503    -0.726351
H   1.567077   -1.199244    -0.726580
H   1.307178   -1.173633    1.015129
