13

H   2.504975   -0.270416    -0.237885
O   2.445068   -0.202452    -1.180318
C   2.185579   -1.466751    -1.729136
C   1.066260   -2.171964    -0.983840
H   1.937983   -1.402625    -2.785045
H   3.096839   -2.041184    -1.639244
O   -0.043959   -1.331029    -0.978982
H   1.380392   -2.398290    0.036982
H   0.841130   -3.117933    -1.472759
C   -0.381609   -0.813417    -2.226865
H   0.366496   -0.106062    -2.579876
H   -0.435693   -1.641239    -2.920182
H   -1.346371   -0.311084    -2.200645
