18

C   0.000000   0.000000    -0.143475
C   0.036678   1.219374    0.558554
C   0.031764   1.213119    1.949833
C   -0.000000   -0.000000    2.644495
C   -0.031764   -1.213119    1.949833
C   -0.036677   -1.219374    0.558554
C   0.000000   -0.000000    -1.610345
H   0.018170   2.164705    0.023536
H   0.042402   2.152895    2.492275
H   -0.000000   -0.000000    3.730145
H   -0.042402   -2.152895    2.492275
H   -0.018170   -2.164705    0.023536
N   -0.712590   -0.905950    -2.274072
N   0.712590   0.905950    -2.274072
H   0.673432   1.006469    -3.281608
H   1.377190   1.485970    -1.778928
H   -1.377190   -1.485970    -1.778928
H   -0.673432   -1.006469    -3.281608
