13

H   -2.365627   -1.312883    -0.379134
C   -1.358347   -1.274295    0.019669
C   -0.681945   0.000119    -0.470601
H   -0.826096   -2.155117    -0.321105
H   -1.409554   -1.292283    1.100109
C   -1.357790   1.274691    0.020220
N   0.739525   -0.000142    0.006128
H   -0.594190   0.000341    -1.545128
H   -2.364980   1.313977    -0.378631
H   -0.825080   2.155361    -0.320114
H   -1.409060   1.292170    1.100671
O   0.929993   0.183192    1.168321
O   1.591208   -0.184365    -0.810021
