13

H   1.760035   -0.679700    -0.873823
C   1.172765   -0.420956    0.000803
H   1.757279   -0.678203    0.877721
O   -0.000121   -1.191066    -0.000402
C   0.770450   1.064194    -0.001052
C   -1.172834   -0.420737    -0.000355
H   1.163077   1.572502    -0.873489
H   1.165375   1.575321    0.868756
C   -0.770247   1.064337    0.000991
H   -1.758339   -0.677951    -0.876591
H   -1.759221   -0.679256    0.874889
H   -1.162775   1.572998    0.873239
H   -1.165116   1.575235    -0.868945
