13

H   -0.962436   -0.748775    -1.946351
N   -0.635097   -1.300471    -1.176961
C   -0.563778   -0.502042    0.037919
H   0.274259   -1.638480    -1.429106
C   0.575259   0.508231    -0.048326
H   -0.379745   -1.178195    0.867464
H   -1.495719   0.022884    0.263049
C   1.954651   -0.143624    0.035137
H   0.475158   1.060484    -0.977307
H   0.469181   1.234488    0.755973
H   2.103292   -0.853109    -0.774172
H   2.742821   0.599562    -0.030094
H   2.083613   -0.679371    0.971560
