18

C	 -0.403051	 1.410184	 -1.683738
C	 0.577005	 2.420102	 -1.708641
C	 0.188546	 3.755768	 -1.737226
C	 -1.169100	 4.090418	 -1.731692
C	 -2.145002	 3.089432	 -1.702261
C	 -1.768899	 1.750068	 -1.682987
C	 -0.000000	 -0.000000	 -1.658508
H	 1.631744	 2.164185	 -1.756279
H	 0.942893	 4.534958	 -1.774054
H	 -1.467403	 5.134114	 -1.750365
H	 -3.197442	 3.353201	 -1.684092
H	 -2.529625	 0.977299	 -1.616943
N	 -0.712589	 -0.905950	 -2.322235
N	 1.077333	 -0.370206	 -0.971948
H	 1.449420	 -1.312357	 -0.997816
H	 1.521412	 0.283071	 -0.340041
H	 -1.377189	 -1.485970	 -1.827091
H	 -0.673431	 -1.006470	 -3.329771
