18

C	 1.341574	 0.363103	 -2.127592
C	 2.359070	 0.642984	 -1.196231
C	 3.630781	 0.982261	 -1.647189
C	 3.891408	 1.053226	 -3.019145
C	 2.881379	 0.780283	 -3.946815
C	 1.608209	 0.430776	 -3.507951
C	 -0.000000	 -0.000000	 -1.658508
H	 2.172683	 0.547406	 -0.130228
H	 4.420695	 1.181259	 -0.930273
H	 4.884324	 1.321963	 -3.366320
H	 3.083682	 0.849834	 -5.010662
H	 0.815958	 0.261483	 -4.231772
N	 -0.712589	 -0.905950	 -2.322235
N	 -0.501479	 0.577358	 -0.570281
H	 -1.381335	 0.295908	 -0.153860
H	 -0.033763	 1.376286	 -0.162555
H	 -1.377189	 -1.485970	 -1.827091
H	 -0.673431	 -1.006470	 -3.329771
